*SPEF "1481-1998"
*DESIGN "full_adder_8bit"
*DATE "Thu Jun  5 11:17:43 2025"
*VENDOR "Synopsys, Inc."
*PROGRAM "icc2 /home/synopsys_install/icc2/W-2024.09/linux64/nwtn/bin/icc2_exec"
*VERSION "W-2024.09 Aug 25, 2024"
*DESIGN_FLOW "ICC2 SPEF DR"
*DIVIDER /
*DELIMITER :
*BUS_DELIMITER [ ]
*T_UNIT 1 NS
*C_UNIT 1 FF
*R_UNIT 1 OHM
*L_UNIT 1 HENRY

// XY_UNIT 1 UM
// PARASITIC_TECH p1 at 125.000 degree

*NAME_MAP
*1 A[7]
*2 A[6]
*3 A[5]
*4 A[4]
*5 A[3]
*6 A[2]
*7 A[1]
*8 A[0]
*9 B[7]
*10 B[6]
*11 B[5]
*12 B[4]
*13 B[3]
*14 B[2]
*15 B[1]
*16 B[0]
*17 C_in
*18 Clock
*19 SUM[7]
*20 SUM[6]
*21 SUM[5]
*22 SUM[4]
*23 SUM[3]
*24 SUM[2]
*25 SUM[1]
*26 SUM[0]
*27 C_out
*28 VDD
*29 VSS
*30 regB_reg[7]
*31 regB_reg[6]
*32 regB_reg[4]
*33 regB_reg[1]
*34 SUM_reg[6]
*35 SUM_reg[5]
*36 SUM_reg[4]
*37 SUM_reg[3]
*38 SUM_reg[2]
*39 SUM_reg[1]
*40 C_out_reg
*41 regCin_reg
*42 regB_reg[5]
*43 regB_reg[3]
*44 regB_reg[2]
*45 regB_reg[0]
*46 regA_reg[7]
*47 regA_reg[6]
*48 regA_reg[5]
*49 regA_reg[4]
*50 regA_reg[3]
*51 regA_reg[2]
*52 regA_reg[1]
*53 regA_reg[0]
*54 SUM_reg[0]
*55 SUM_reg[7]
*56 U67
*57 U84
*58 U85
*59 U86
*60 U87
*61 U88
*62 U89
*63 U90
*64 U91
*65 U92
*66 ctmTdsLR_1_711
*67 ctmTdsLR_2_712
*68 U95
*69 U96
*70 U97
*71 U98
*72 ctmTdsLR_1_709
*73 ctmTdsLR_2_710
*74 U100
*75 U101
*76 U103
*77 U104
*78 U105
*79 U106
*80 U107
*81 U108
*82 U111
*83 U112
*84 U113
*85 U114
*86 U115
*87 U116
*88 U117
*89 U118
*90 U119
*91 U120
*92 U121
*93 U122
*94 U123
*95 U124
*96 U125
*97 U126
*98 U127
*99 U128
*100 U129
*101 U130
*102 U131
*103 U132
*104 U133
*105 U134
*106 U135
*107 U136
*108 U137
*109 U138
*110 U139
*111 U140
*112 U141
*113 U142
*114 U143
*115 U144
*116 U145
*117 U146
*118 U147
*119 U148
*120 U149
*121 U150
*122 U151
*123 U152
*124 U153
*125 U154
*126 U155
*127 U156
*128 U157
*129 U158
*130 U159
*131 ctosc_drc_inst_615
*132 ctosc_drc_inst_706
*133 ctmTdsLR_1_707
*134 ctmTdsLR_2_708
*135 ctosc_drc_0
*136 ctosc_drc_1
*137 regCin
*138 carry[7]
*139 n56
*140 n57
*141 n58
*142 n59
*143 n60
*144 n62
*145 n63
*146 n64
*147 n65
*148 n66
*149 n68
*150 n69
*151 n70
*152 n71
*153 n72
*154 n74
*155 n75
*156 n76
*157 n77
*158 n78
*159 n79
*160 n80
*161 n81
*162 n82
*163 n83
*164 n84
*165 n85
*166 n86
*167 n87
*168 n88
*169 n89
*170 n90
*171 n91
*172 n92
*173 n93
*174 n94
*175 n95
*176 n96
*177 n97
*178 n98
*179 n99
*180 n100
*181 n101
*182 n102
*183 n103
*184 n104
*185 n105
*186 n106
*187 n107
*188 n108
*189 n109
*190 n110
*191 n111
*192 n112
*193 n113
*194 n114
*195 n115
*196 n116
*197 n117
*198 n118
*199 n119
*200 n120
*201 n121
*202 n138
*203 n139
*204 n140
*205 n141
*206 n142
*207 n143
*208 n144
*209 n145
*210 n146
*211 n147
*212 n148
*213 n149
*214 n150
*215 n151
*216 n152
*217 n153
*218 n154
*219 regA[7]
*220 regA[6]
*221 regA[5]
*222 regA[4]
*223 regA[3]
*224 regA[2]
*225 regA[1]
*226 regA[0]
*227 regB[7]
*228 regB[6]
*229 regB[5]
*230 regB[4]
*231 regB[3]
*232 regB[2]
*233 regB[1]
*234 regB[0]
*235 tmp_net2
*236 sum_wire[6]
*237 sum_wire[5]
*238 sum_wire[4]
*239 sum_wire[3]
*240 sum_wire[2]
*241 sum_wire[1]
*242 tmp_net3
*243 tmp_net4

*PORTS

*1 I *C 0.143 11.424
*2 I *C 0.143 9.296
*3 I *C 0.143 14.768
*4 I *C 0.143 12.640
*5 I *C 0.143 10.512
*6 I *C 0.143 5.952
*7 I *C 0.143 3.520
*8 I *C 0.143 4.736
*9 I *C 0.143 18.720
*10 I *C 0.143 17.200
*11 I *C 0.143 16.592
*12 I *C 0.143 19.328
*13 I *C 0.143 8.688
*14 I *C 0.143 1.696
*15 I *C 0.143 2.304
*16 I *C 0.143 6.560
*17 I *C 0.143 2.912
*18 I *C 23.769 13.856
*19 O *C 17.504 22.249
*20 O *C 18.872 22.249
*21 O *C 19.176 22.249
*22 O *C 19.480 22.249
*23 O *C 5.648 22.249
*24 O *C 19.784 22.249
*25 O *C 20.088 22.249
*26 O *C 10.360 22.249
*27 O *C 20.392 22.249
*28 I *C 11.956 11.196
*29 I *C 11.956 11.196

*D_NET *135 7.404972 //LENGTH 80.170 LUMPCC 0 DR

*CONN
*I *131:Y O *L 0 *C 19.024 10.968
*I *38:CLK I *L 0.714381 *C 18.568 8.840
*I *45:CLK I *L 0.717204 *C 14.008 8.536
*I *41:CLK I *L 0.717204 *C 12.488 5.496
*I *53:CLK I *L 0.717204 *C 12.640 2.152
*I *52:CLK I *L 0.717204 *C 12.944 5.192
*I *54:CLK I *L 0.717204 *C 18.568 8.536
*I *39:CLK I *L 0.714381 *C 18.416 12.184
*I *55:CLK I *L 0.717204 *C 18.528 15.224
*I *40:CLK I *L 0.714381 *C 18.416 18.568
*I *36:CLK I *L 0.714381 *C 14.160 18.872
*I *34:CLK I *L 0.714381 *C 18.416 18.872
*I *31:CLK I *L 0.714381 *C 11.272 15.224
*I *30:CLK I *L 0.714381 *C 11.576 15.528
*I *35:CLK I *L 0.714381 *C 11.424 18.568
*I *46:CLK I *L 0.717204 *C 10.360 11.880
*I *50:CLK I *L 0.717204 *C 3.216 8.840
*I *43:CLK I *L 0.717204 *C 3.216 8.536
*I *33:CLK I *L 0.714381 *C 2.912 5.496
*I *51:CLK I *L 0.717204 *C 3.216 5.192
*I *44:CLK I *L 0.717204 *C 3.216 2.152
*I *49:CLK I *L 0.717204 *C 3.368 12.184
*I *48:CLK I *L 0.717204 *C 3.216 15.224
*I *42:CLK I *L 0.717204 *C 3.216 15.528
*I *37:CLK I *L 0.714381 *C 2.760 18.568
*I *32:CLK I *L 0.714381 *C 2.760 18.872
*I *47:CLK I *L 0.717204 *C 10.208 8.840
*N *135:27 *C 10.208 8.854
*N *135:28 *C 10.208 10.208
*N *135:29 *C 10.360 10.208
*N *135:30 *C 2.760 18.858
*N *135:31 *C 2.760 18.582
*N *135:32 *C 2.760 18.428
*N *135:33 *C 2.774 18.416
*N *135:34 *C 3.203 18.416
*N *135:35 *C 3.216 18.402
*N *135:36 *C 3.216 15.528
*N *135:37 *C 3.216 15.224
*N *135:38 *C 3.216 15.072
*N *135:39 *C 3.368 15.072
*N *135:40 *C 3.368 12.184
*N *135:41 *C 3.216 2.166
*N *135:42 *C 3.216 5.192
*N *135:43 *C 2.912 5.496
*N *135:44 *C 2.912 5.636
*N *135:45 *C 2.925 5.648
*N *135:46 *C 3.203 5.648
*N *135:47 *C 3.216 5.648
*N *135:48 *C 3.216 8.536
*N *135:49 *C 3.216 8.840
*N *135:50 *C 3.216 10.512
*N *135:51 *C 3.368 10.526
*N *135:52 *C 3.381 10.512
*N *135:53 *C 10.347 10.512
*N *135:54 *C 10.360 10.512
*N *135:55 *C 10.360 11.867
*N *135:56 *C 10.360 11.727
*N *135:57 *C 10.373 11.728
*N *135:58 *C 11.424 18.555
*N *135:59 *C 11.576 15.514
*N *135:60 *C 11.576 15.376
*N *135:61 *C 11.424 15.376
*N *135:62 *C 11.272 15.376
*N *135:63 *C 11.272 15.224
*N *135:64 *C 11.272 11.742
*N *135:65 *C 11.272 11.727
*N *135:66 *C 11.272 11.424
*N *135:67 *C 18.416 18.886
*N *135:68 *C 18.416 19.024
*N *135:69 *C 14.160 18.872
*N *135:70 *C 14.160 19.012
*N *135:71 *C 14.174 19.024
*N *135:72 *C 18.099 19.024
*N *135:73 *C 18.112 19.024
*N *135:74 *C 18.416 18.556
*N *135:75 *C 18.416 18.416
*N *135:76 *C 18.402 18.416
*N *135:77 *C 18.126 18.416
*N *135:78 *C 18.112 18.416
*N *135:79 *C 18.428 15.224
*N *135:80 *C 18.416 15.212
*N *135:81 *C 18.416 15.072
*N *135:82 *C 18.402 15.072
*N *135:83 *C 18.126 15.072
*N *135:84 *C 18.112 15.072
*N *135:85 *C 18.416 12.171
*N *135:86 *C 18.416 12.032
*N *135:87 *C 18.402 12.032
*N *135:88 *C 18.126 12.032
*N *135:89 *C 18.112 12.032
*N *135:90 *C 18.568 8.524
*N *135:91 *C 18.568 8.384
*N *135:92 *C 18.555 8.384
*N *135:93 *C 12.944 5.179
*N *135:94 *C 12.944 5.040
*N *135:95 *C 12.640 2.153
*N *135:96 *C 12.640 5.040
*N *135:97 *C 12.792 5.040
*N *135:98 *C 12.502 5.496
*N *135:99 *C 12.791 5.496
*N *135:100 *C 12.792 5.636
*N *135:101 *C 12.806 5.648
*N *135:102 *C 13.995 5.648
*N *135:103 *C 14.008 5.662
*N *135:104 *C 14.008 8.524
*N *135:105 *C 14.008 8.383
*N *135:106 *C 14.022 8.384
*N *135:107 *C 18.112 8.384
*N *135:108 *C 18.112 8.398
*N *135:109 *C 18.568 8.854
*N *135:110 *C 18.568 9.587
*N *135:111 *C 18.555 9.600
*N *135:112 *C 18.126 9.600
*N *135:113 *C 18.112 9.600
*N *135:114 *C 18.112 11.424
*N *135:115 *C 18.112 11.424
*N *135:116 *C 19.011 11.424
*N *135:117 *C 19.024 11.411
*N *135:118 *C 19.024 10.982

*CAP
0 *131:Y 0.001
1 *38:CLK 0.001
2 *45:CLK 0.001
3 *41:CLK 0.001
4 *53:CLK 0.001
5 *52:CLK 0.001
6 *54:CLK 0.001
7 *39:CLK 0.001
8 *55:CLK 0.01506145
9 *40:CLK 0.001
10 *36:CLK 0.001
11 *34:CLK 0.001
12 *31:CLK 0.001
13 *30:CLK 0.001
14 *35:CLK 0.001
15 *46:CLK 0.001
16 *50:CLK 0.001
17 *43:CLK 0.001
18 *33:CLK 0.001
19 *51:CLK 0.001
20 *44:CLK 0.001
21 *49:CLK 0.001
22 *48:CLK 0.001
23 *42:CLK 0.001
24 *37:CLK 0.001
25 *32:CLK 0.001
26 *47:CLK 0.001
27 *135:27 0.07953165
28 *135:28 0.09346161
29 *135:29 0.02721711
30 *135:30 0.01430961
31 *135:31 0.02589006
32 *135:32 0.009208234
33 *135:33 0.02069337
34 *135:34 0.02069337
35 *135:35 0.1490224
36 *135:36 0.1635095
37 *135:37 0.02154099
38 *135:38 0.01787191
39 *135:39 0.1973655
40 *135:40 0.2835326
41 *135:41 0.1622198
42 *135:42 0.1815953
43 *135:43 0.01255911
44 *135:44 0.01399179
45 *135:45 0.01456257
46 *135:46 0.01456257
47 *135:47 0.159995
48 *135:48 0.1525767
49 *135:49 0.1009945
50 *135:50 0.1002939
51 *135:51 0.10493
52 *135:52 0.2970319
53 *135:53 0.2970319
54 *135:54 0.07454878
55 *135:55 0.007274171
56 *135:56 0.06853579
57 *135:57 0.03404719
58 *135:58 0.1530345
59 *135:59 0.008000244
60 *135:60 0.01929806
61 *135:61 0.1718252
62 *135:62 0.01672127
63 *135:63 0.1754974
64 *135:64 0.1677017
65 *135:65 0.04717159
66 *135:66 0.2871477
67 *135:67 0.006836784
68 *135:68 0.0255226
69 *135:69 0.007916112
70 *135:70 0.009348791
71 *135:71 0.1525419
72 *135:72 0.1525419
73 *135:73 0.04654392
74 *135:74 0.008416243
75 *135:75 0.009848922
76 *135:76 0.01352198
77 *135:77 0.01352198
78 *135:78 0.1882253
79 *135:79 0.01298606
80 *135:80 0.01572584
81 *135:81 0.01542902
82 *135:82 0.01353644
83 *135:83 0.01353644
84 *135:84 0.3063335
85 *135:85 0.009388898
86 *135:86 0.01082158
87 *135:87 0.01793265
88 *135:88 0.01793265
89 *135:89 0.1813796
90 *135:90 0.01224719
91 *135:91 0.01367987
92 *135:92 0.01769899
93 *135:93 0.00877277
94 *135:94 0.02067669
95 *135:95 0.1608031
96 *135:96 0.1725777
97 *135:97 0.04167077
98 *135:98 0.01554004
99 *135:99 0.05695433
100 *135:100 0.009635141
101 *135:101 0.04941935
102 *135:102 0.04941935
103 *135:103 0.1422557
104 *135:104 0.008754467
105 *135:105 0.1548151
106 *135:106 0.15761
107 *135:107 0.1776812
108 *135:108 0.06725489
109 *135:109 0.04682556
110 *135:110 0.04825824
111 *135:111 0.01932313
112 *135:112 0.01932313
113 *135:113 0.1511435
114 *135:114 0.1131247
115 *135:115 0.3190307
116 *135:116 0.0450074
117 *135:117 0.02452733
118 *135:118 0.02309466

*RES
0 *131:Y *135:118 1
1 *135:67 *34:CLK 1
2 *135:117 *135:116 0.5
3 *135:116 *135:115 1.604464
4 *135:118 *135:117 0.7660715
5 *135:91 *135:90 0.2325
6 *135:92 *135:91 0.5
7 *135:90 *54:CLK 1
8 *135:78 *135:77 0.5
9 *135:78 *135:73 1.085714
10 *135:77 *135:76 0.4946429
11 *135:75 *135:74 0.2325
12 *135:76 *135:75 0.5
13 *135:74 *40:CLK 1
14 *135:84 *135:83 0.5
15 *135:84 *135:78 5.971429
16 *135:83 *135:82 0.4946429
17 *135:81 *135:80 0.2325
18 *135:82 *135:81 0.5
19 *135:79 *55:CLK 0.1658333
20 *135:80 *135:79 1
21 *135:89 *135:88 0.5
22 *135:89 *135:84 5.428572
23 *135:88 *135:87 0.4946429
24 *135:86 *135:85 0.2325
25 *135:87 *135:86 0.5
26 *135:85 *39:CLK 1
27 *135:114 *135:113 3.257143
28 *135:114 *135:89 1.085714
29 *135:115 *135:114 0.5
30 *135:115 *135:66 12.21429
31 *135:113 *135:112 0.5
32 *135:113 *135:108 2.147322
33 *135:112 *135:111 0.7660714
34 *135:110 *135:109 1.308929
35 *135:111 *135:110 0.5
36 *135:109 *38:CLK 1
37 *135:108 *135:107 0.5
38 *135:107 *135:106 7.304464
39 *135:107 *135:92 0.7901786
40 *135:73 *135:72 0.5
41 *135:73 *135:68 0.5428572
42 *135:72 *135:71 7.008929
43 *135:70 *135:69 0.2325
44 *135:71 *135:70 0.5
45 *135:69 *36:CLK 1
46 *135:104 *45:CLK 1
47 *135:105 *135:104 0.2341667
48 *135:105 *135:103 4.859822
49 *135:106 *135:105 0.5
50 *135:93 *52:CLK 1
51 *135:103 *135:102 0.5
52 *135:102 *135:101 2.123214
53 *135:100 *135:99 0.2325
54 *135:101 *135:100 0.5
55 *135:95 *53:CLK 1
56 *135:98 *41:CLK 1
57 *135:59 *30:CLK 1
58 *135:58 *35:CLK 1
59 *135:63 *31:CLK 1
60 *135:63 *135:62 0.2714286
61 *135:64 *135:63 6.21875
62 *135:65 *135:64 0.5
63 *135:65 *135:57 1.604464
64 *135:55 *46:CLK 1
65 *135:56 *135:55 0.2341667
66 *135:56 *135:54 2.169643
67 *135:57 *135:56 0.5
68 *135:27 *47:CLK 1
69 *135:40 *49:CLK 1
70 *135:40 *135:39 5.157143
71 *135:54 *135:53 0.5
72 *135:54 *135:29 0.5428572
73 *135:53 *135:52 12.4375
74 *135:51 *135:50 0.2714286
75 *135:51 *135:40 2.961607
76 *135:52 *135:51 0.5
77 *135:36 *42:CLK 1
78 *135:36 *135:35 5.133036
79 *135:37 *48:CLK 1
80 *135:37 *135:36 0.5428572
81 *135:49 *50:CLK 1
82 *135:49 *135:48 0.5428572
83 *135:48 *43:CLK 1
84 *135:48 *135:47 5.157143
85 *135:42 *51:CLK 1
86 *135:42 *135:41 5.404465
87 *135:41 *44:CLK 1
88 *135:47 *135:46 0.5
89 *135:47 *135:42 0.8142857
90 *135:46 *135:45 0.4946429
91 *135:44 *135:43 0.2325
92 *135:45 *135:44 0.5
93 *135:43 *33:CLK 1
94 *135:30 *32:CLK 1
95 *135:31 *37:CLK 1
96 *135:31 *135:30 0.4946429
97 *135:35 *135:34 0.5
98 *135:34 *135:33 0.7660715
99 *135:32 *135:31 0.255
100 *135:33 *135:32 0.5
101 *135:50 *135:49 2.985714
102 *135:38 *135:37 0.2714286
103 *135:39 *135:38 0.2714286
104 *135:28 *135:27 2.41875
105 *135:29 *135:28 0.2714286
106 *135:62 *135:61 0.2714286
107 *135:61 *135:60 0.2714286
108 *135:61 *135:58 5.675893
109 *135:60 *135:59 0.2473214
110 *135:99 *135:98 0.5169643
111 *135:99 *135:97 0.8142858
112 *135:96 *135:95 5.155357
113 *135:97 *135:96 0.2714286
114 *135:97 *135:94 0.2714286
115 *135:94 *135:93 0.2473214
116 *135:68 *135:67 0.2473214
117 *135:66 *135:65 0.5410715

*END

*D_NET *136 1.052965 //LENGTH 12.495 LUMPCC 0 DR

*CONN
*I *132:Y O *L 0 *C 19.662 16.438
*I *131:A I *L 1.454563 *C 17.200 11.120
*N *136:2 *C 17.200 10.938
*N *136:3 *C 17.200 11.107
*N *136:4 *C 17.213 11.120
*N *136:5 *C 21.747 11.120
*N *136:6 *C 21.760 11.133
*N *136:7 *C 21.760 16.427
*N *136:8 *C 21.745 16.440

*CAP
0 *132:Y 0.1104972
1 *131:A 0.001
2 *136:2 0.0119495
3 *136:3 0.005772386
4 *136:4 0.1804263
5 *136:5 0.1804263
6 *136:6 0.2270876
7 *136:7 0.2273844
8 *136:8 0.1084218

*RES
0 *132:Y *136:8 4.166
1 *136:3 *131:A 1
2 *136:3 *136:2 0.2825
3 *136:4 *136:3 0.5
4 *136:6 *136:5 0.5
5 *136:5 *136:4 8.094644
6 *136:8 *136:7 1
7 *136:7 *136:6 9.451786

*END

*D_NET *1 0.852358 //LENGTH 10.380 LUMPCC 0 DR

*CONN
*P *1 I *L 0 *C 0.272 11.424
*I *46:RSTB I *L 0.768783 *C 9.600 10.512
*N *1:2 *C 9.600 10.513
*N *1:3 *C 9.600 11.411
*N *1:4 *C 9.587 11.424

*CAP
0 *1 0.3853557
1 *46:RSTB 0.001
2 *1:2 0.04079314
3 *1:3 0.04222582
4 *1:4 0.3829834

*RES
0 *1 *1:4 16.63304
1 *1:2 *46:RSTB 1
2 *1:3 *1:2 1.602679
3 *1:4 *1:3 0.5

*END

*D_NET *2 0.7555827 //LENGTH 10.284 LUMPCC 0 DR

*CONN
*P *2 I *L 0 *C 0.272 9.296
*I *47:RSTB I *L 0.768783 *C 9.448 10.208
*N *2:2 *C 9.447 10.208
*N *2:3 *C 9.296 10.208
*N *2:4 *C 9.296 9.309
*N *2:5 *C 9.283 9.296

*CAP
0 *2 0.3304756
1 *47:RSTB 0.001
2 *2:2 0.004379754
3 *2:3 0.05109043
4 *2:4 0.04053356
5 *2:5 0.3281034

*RES
0 *2 *2:5 16.09018
1 *2:2 *47:RSTB 1
2 *2:4 *2:3 1.604464
3 *2:5 *2:4 0.5
4 *2:3 *2:2 0.2696429

*END

*D_NET *3 0.2314238 //LENGTH 3.275 LUMPCC 0 DR

*CONN
*P *3 I *L 0 *C 0.258 14.768
*I *48:RSTB I *L 0.768783 *C 2.456 13.856
*N *3:2 *C 2.456 13.870
*N *3:3 *C 2.456 14.755
*N *3:4 *C 2.443 14.768

*CAP
0 *3 0.07341271
1 *48:RSTB 0.001
2 *3:2 0.04226897
3 *3:3 0.04370165
4 *3:4 0.0710405

*RES
0 *3 *3:4 3.900893
1 *3:2 *48:RSTB 1
2 *3:3 *3:2 1.580357
3 *3:4 *3:3 0.5

*END

*D_NET *4 0.2440217 //LENGTH 3.427 LUMPCC 0 DR

*CONN
*P *4 I *L 0 *C 0.258 12.640
*I *49:RSTB I *L 0.768783 *C 2.608 13.552
*N *4:2 *C 2.608 13.539
*N *4:3 *C 2.608 12.654
*N *4:4 *C 2.595 12.640

*CAP
0 *4 0.07888113
1 *49:RSTB 0.001
2 *4:2 0.04309948
3 *4:3 0.04453216
4 *4:4 0.07650892

*RES
0 *4 *4:4 4.172321
1 *4:2 *49:RSTB 1
2 *4:3 *4:2 1.580357
3 *4:4 *4:3 0.5

*END

*D_NET *5 0.1761705 //LENGTH 2.667 LUMPCC 0 DR

*CONN
*P *5 I *L 0 *C 0.258 10.512
*I *50:RSTB I *L 0.768783 *C 2.456 10.208
*N *5:2 *C 2.456 10.222
*N *5:3 *C 2.456 10.498
*N *5:4 *C 2.443 10.512

*CAP
0 *5 0.07610022
1 *50:RSTB 0.001
2 *5:2 0.01195478
3 *5:3 0.01338745
4 *5:4 0.073728

*RES
0 *5 *5:4 3.900893
1 *5:2 *50:RSTB 1
2 *5:3 *5:2 0.4946429
3 *5:4 *5:3 0.5

*END

*D_NET *6 0.3928363 //LENGTH 4.843 LUMPCC 0 DR

*CONN
*P *6 I *L 0 *C 0.258 5.952
*I *51:RSTB I *L 0.768783 *C 2.456 3.824
*N *6:2 *C 2.456 4.006
*N *6:3 *C 2.456 3.837
*N *6:4 *C 2.443 3.824
*N *6:5 *C 2.014 3.824
*N *6:6 *C 2.000 3.838
*N *6:7 *C 2.000 5.939
*N *6:8 *C 1.987 5.952

*CAP
0 *6 0.06574872
1 *51:RSTB 0.001
2 *6:2 0.01891472
3 *6:3 0.01273761
4 *6:4 0.02224991
5 *6:5 0.02224991
6 *6:6 0.0932795
7 *6:7 0.0932795
8 *6:8 0.0633765

*RES
0 *6 *6:8 3.086607
1 *6:3 *51:RSTB 1
2 *6:3 *6:2 0.2825
3 *6:4 *6:3 0.5
4 *6:6 *6:5 0.5
5 *6:5 *6:4 0.7660714
6 *6:7 *6:6 3.751786
7 *6:8 *6:7 0.5

*END

*D_NET *7 1.045634 //LENGTH 12.395 LUMPCC 0 DR

*CONN
*P *7 I *L 0 *C 0.258 3.520
*I *52:RSTB I *L 0.768783 *C 12.184 3.824
*N *7:2 *C 12.184 3.811
*N *7:3 *C 12.184 3.534
*N *7:4 *C 12.171 3.520

*CAP
0 *7 0.506312
1 *52:RSTB 0.001
2 *7:2 0.01647468
3 *7:3 0.01790736
4 *7:4 0.5039397

*RES
0 *7 *7:4 21.27232
1 *7:2 *52:RSTB 1
2 *7:3 *7:2 0.4946429
3 *7:4 *7:3 0.5

*END

*D_NET *8 1.089938 //LENGTH 13.003 LUMPCC 0 DR

*CONN
*P *8 I *L 0 *C 0.258 4.736
*I *53:RSTB I *L 0.768783 *C 11.880 3.520
*N *8:2 *C 11.880 3.534
*N *8:3 *C 11.880 4.723
*N *8:4 *C 11.867 4.736

*CAP
0 *8 0.4815025
1 *53:RSTB 0.001
2 *8:2 0.06343611
3 *8:3 0.06486879
4 *8:4 0.4791303

*RES
0 *8 *8:4 20.72947
1 *8:2 *53:RSTB 1
2 *8:3 *8:2 2.123214
3 *8:4 *8:3 0.5

*END

*D_NET *9 1.277828 //LENGTH 14.204 LUMPCC 0 DR

*CONN
*P *9 I *L 0 *C 0.258 18.720
*I *30:D I *L 0.558146 *C 11.242 16.440
*N *9:2 *C 10.983 16.440
*N *9:3 *C 10.968 16.454
*N *9:4 *C 10.968 19.011
*N *9:5 *C 10.955 19.024
*N *9:6 *C 0.480 19.024
*N *9:7 *C 0.480 18.720

*CAP
0 *9 0.01114855
1 *30:D 0.02326385
2 *9:2 0.02118845
3 *9:3 0.1626991
4 *9:4 0.1624023
5 *9:5 0.4313804
6 *9:6 0.4441749
7 *9:7 0.02157085

*RES
0 *9 *9:7 0.3964286
1 *9:2 *30:D 0.5180001
2 *9:3 *9:2 1
3 *9:4 *9:3 4.566072
4 *9:5 *9:4 0.5
5 *9:7 *9:6 0.5428572
6 *9:6 *9:5 18.70447

*END

*D_NET *10 1.248316 //LENGTH 13.875 LUMPCC 0 DR

*CONN
*P *10 I *L 0 *C 0.258 17.200
*I *31:D I *L 0.558146 *C 10.968 14.312
*N *10:2 *C 10.968 14.325
*N *10:3 *C 10.968 14.768
*N *10:4 *C 10.816 14.768
*N *10:5 *C 10.816 17.187
*N *10:6 *C 10.803 17.200

*CAP
0 *10 0.4467768
1 *31:D 0.001
2 *10:2 0.02720498
3 *10:3 0.0390581
4 *10:4 0.1501459
5 *10:5 0.1397255
6 *10:6 0.4444046

*RES
0 *10 *10:6 18.82946
1 *10:2 *31:D 1
2 *10:5 *10:4 4.31875
3 *10:6 *10:5 0.5
4 *10:4 *10:3 0.2714286
5 *10:3 *10:2 0.7901786

*END

*D_NET *11 0.1836873 //LENGTH 2.667 LUMPCC 0 DR

*CONN
*P *11 I *L 0 *C 0.258 16.592
*I *42:RSTB I *L 0.768783 *C 2.456 16.896
*N *11:2 *C 2.456 16.883
*N *11:3 *C 2.456 16.605
*N *11:4 *C 2.443 16.592

*CAP
0 *11 0.07872237
1 *42:RSTB 0.001
2 *11:2 0.01309105
3 *11:3 0.01452373
4 *11:4 0.07635015

*RES
0 *11 *11:4 3.900893
1 *11:2 *42:RSTB 1
2 *11:3 *11:2 0.4946429
3 *11:4 *11:3 0.5

*END

*D_NET *12 0.2087515 //LENGTH 2.819 LUMPCC 0 DR

*CONN
*P *12 I *L 0 *C 0.258 19.328
*I *32:D I *L 0.558146 *C 2.456 19.784
*N *12:2 *C 2.456 19.771
*N *12:3 *C 2.456 19.341
*N *12:4 *C 2.443 19.328

*CAP
0 *12 0.08715846
1 *32:D 0.001
2 *12:2 0.01718706
3 *12:3 0.01861974
4 *12:4 0.08478624

*RES
0 *12 *12:4 3.900893
1 *12:2 *32:D 1
2 *12:3 *12:2 0.7660714
3 *12:4 *12:3 0.5

*END

*D_NET *13 0.3061527 //LENGTH 4.235 LUMPCC 0 DR

*CONN
*P *13 I *L 0 *C 0.258 8.688
*I *43:RSTB I *L 0.768783 *C 2.456 7.168
*N *13:2 *C 2.456 6.986
*N *13:3 *C 2.456 7.155
*N *13:4 *C 2.443 7.168
*N *13:5 *C 2.014 7.168
*N *13:6 *C 2.000 7.182
*N *13:7 *C 2.000 8.675
*N *13:8 *C 1.987 8.688

*CAP
0 *13 0.06243581
1 *43:RSTB 0.001
2 *13:2 0.01303728
3 *13:3 0.006860169
4 *13:4 0.01805952
5 *13:5 0.01805952
6 *13:6 0.0633184
7 *13:7 0.0633184
8 *13:8 0.06006359

*RES
0 *13 *13:8 3.086607
1 *13:3 *43:RSTB 1
2 *13:3 *13:2 0.2825
3 *13:4 *13:3 0.5
4 *13:6 *13:5 0.5
5 *13:5 *13:4 0.7660714
6 *13:7 *13:6 2.666071
7 *13:8 *13:7 0.5

*END

*D_NET *14 0.369437 //LENGTH 4.407 LUMPCC 0 DR

*CONN
*P *14 I *L 0 *C 0.258 1.696
*I *44:RSTB I *L 0.768783 *C 2.456 3.520
*N *14:2 *C 2.456 3.506
*N *14:3 *C 2.456 2.622
*N *14:4 *C 2.443 2.608
*N *14:5 *C 2.014 2.608
*N *14:6 *C 2.000 2.595
*N *14:7 *C 2.000 1.710
*N *14:8 *C 1.987 1.696

*CAP
0 *14 0.06360084
1 *44:RSTB 0.001
2 *14:2 0.05378678
3 *14:3 0.05521946
4 *14:4 0.02508602
5 *14:5 0.02508602
6 *14:6 0.04221465
7 *14:7 0.04221465
8 *14:8 0.06122863

*RES
0 *14 *14:8 3.086607
1 *14:2 *44:RSTB 1
2 *14:3 *14:2 1.580357
3 *14:4 *14:3 0.5
4 *14:6 *14:5 0.5
5 *14:5 *14:4 0.7660714
6 *14:7 *14:6 1.580357
7 *14:8 *14:7 0.5

*END

*D_NET *15 0.6520801 //LENGTH 7.035 LUMPCC 0 DR

*CONN
*P *15 I *L 0 *C 0.258 2.304
*I *33:D I *L 0.558146 *C 2.608 6.408
*N *15:2 *C 2.608 6.395
*N *15:3 *C 2.608 5.952
*N *15:4 *C 2.760 5.952
*N *15:5 *C 2.760 2.317
*N *15:6 *C 2.747 2.304

*CAP
0 *15 0.1032403
1 *33:D 0.001
2 *15:2 0.02569801
3 *15:3 0.03776295
4 *15:4 0.1970715
5 *15:5 0.1864393
6 *15:6 0.1008681

*RES
0 *15 *15:6 4.44375
1 *15:2 *33:D 1
2 *15:5 *15:4 6.490179
3 *15:6 *15:5 0.5
4 *15:3 *15:2 0.7901786
5 *15:4 *15:3 0.2714286

*END

*D_NET *16 1.06003 //LENGTH 13.875 LUMPCC 0 DR

*CONN
*P *16 I *L 0 *C 0.258 6.560
*I *45:RSTB I *L 0.768783 *C 13.248 7.168
*N *16:2 *C 13.248 7.155
*N *16:3 *C 13.248 6.878
*N *16:4 *C 13.235 6.864
*N *16:5 *C 11.424 6.864
*N *16:6 *C 11.424 6.560

*CAP
0 *16 0.4366659
1 *45:RSTB 0.001
2 *16:2 0.01298468
3 *16:3 0.01441736
4 *16:4 0.066314
5 *16:5 0.08033418
6 *16:6 0.4483138

*RES
0 *16 *16:6 19.93929
1 *16:2 *45:RSTB 1
2 *16:3 *16:2 0.4946429
3 *16:4 *16:3 0.5
4 *16:6 *16:5 0.5428572
5 *16:5 *16:4 3.233036

*END

*D_NET *17 1.221328 //LENGTH 14.870 LUMPCC 0 DR

*CONN
*P *17 I *L 0 *C 0.258 2.912
*I *41:SETB I *L 0.55078 *C 11.564 6.276
*N *17:2 *C 11.437 6.256
*N *17:3 *C 11.424 6.243
*N *17:4 *C 11.424 2.925
*N *17:5 *C 11.411 2.912

*CAP
0 *17 0.4422829
1 *41:SETB 0.0155788
2 *17:2 0.0135034
3 *17:3 0.1551747
4 *17:4 0.1548779
5 *17:5 0.4399106

*RES
0 *17 *17:5 19.91518
1 *17:2 *41:SETB 0.2116667
2 *17:3 *17:2 1
3 *17:4 *17:3 5.923214
4 *17:5 *17:4 0.5

*END

*D_NET *18 0.6561733 //LENGTH 7.683 LUMPCC 0 DR

*CONN
*P *18 I *L 0 *C 23.654 13.856
*I *132:A I *L 0.753714 *C 18.568 16.288
*N *18:2 *C 18.568 16.274
*N *18:3 *C 18.568 13.870
*N *18:4 *C 18.582 13.856

*CAP
0 *18 0.2036098
1 *132:A 0.001
2 *18:2 0.1244467
3 *18:3 0.1258793
4 *18:4 0.2012375

*RES
0 *18 *18:4 9.058036
1 *18:2 *132:A 1
2 *18:3 *18:2 4.294643
3 *18:4 *18:3 0.5

*END

*D_NET *19 0.9383763 //LENGTH 12.313 LUMPCC 0 DR

*CONN
*I *55:QN O *L 0 *C 21.456 14.160
*P *19 O *L 0 *C 17.504 22.134
*N *19:2 *C 17.504 21.456
*N *19:3 *C 17.808 21.456
*N *19:4 *C 17.808 15.694
*N *19:5 *C 17.822 15.680
*N *19:6 *C 21.443 15.680
*N *19:7 *C 21.456 15.667
*N *19:8 *C 21.456 14.174

*CAP
0 *55:QN 0.001
1 *19 0.02504758
2 *19:2 0.03572219
3 *19:3 0.2111614
4 *19:4 0.1981151
5 *19:5 0.1313314
6 *19:6 0.1313308
7 *19:7 0.1030502
8 *19:8 0.1016175

*RES
0 *55:QN *19:8 1
1 *19:8 *19:7 2.666071
2 *19:7 *19:6 0.5
3 *19:6 *19:5 6.466072
4 *19:5 *19:4 0.5
5 *19:4 *19:3 10.29018
6 *19:2 *19 1.210714
7 *19:3 *19:2 0.5428572

*END

*D_NET *20 0.4784257 //LENGTH 5.665 LUMPCC 0 DR

*CONN
*I *34:Q O *L 0 *C 21.456 19.328
*P *20 O *L 0 *C 18.872 22.134
*N *20:2 *C 18.872 20.254
*N *20:3 *C 18.886 20.240
*N *20:4 *C 21.443 20.240
*N *20:5 *C 21.456 20.227
*N *20:6 *C 21.456 19.341

*CAP
0 *34:Q 0.001
1 *20 0.08510225
2 *20:2 0.08273003
3 *20:3 0.1190747
4 *20:4 0.1190747
5 *20:5 0.03643836
6 *20:6 0.03500568

*RES
0 *34:Q *20:6 1
1 *20:6 *20:5 1.580357
2 *20:5 *20:4 0.5
3 *20:4 *20:3 4.566072
4 *20:2 *20 3.358036
5 *20:3 *20:2 0.5

*END

*D_NET *21 0.7512624 //LENGTH 9.009 LUMPCC 0 DR

*CONN
*I *35:Q O *L 0 *C 14.464 18.112
*P *21 O *L 0 *C 19.176 22.134
*N *21:2 *C 19.176 19.646
*N *21:3 *C 19.163 19.632
*N *21:4 *C 14.478 19.632
*N *21:5 *C 14.464 19.619
*N *21:6 *C 14.464 18.126

*CAP
0 *35:Q 0.001
1 *21 0.1249552
2 *21:2 0.122583
3 *21:3 0.1864234
4 *21:4 0.1864234
5 *21:5 0.06565508
6 *21:6 0.0642224

*RES
0 *35:Q *21:6 1
1 *21:6 *21:5 2.666071
2 *21:5 *21:4 0.5
3 *21:4 *21:3 8.366073
4 *21:2 *21 4.44375
5 *21:3 *21:2 0.5

*END

*D_NET *22 0.5212353 //LENGTH 5.361 LUMPCC 0 DR

*CONN
*I *36:Q O *L 0 *C 17.200 19.328
*P *22 O *L 0 *C 19.480 22.134
*N *22:2 *C 19.480 19.950
*N *22:3 *C 19.466 19.936
*N *22:4 *C 17.213 19.936
*N *22:5 *C 17.200 19.922
*N *22:6 *C 17.200 19.341

*CAP
0 *36:Q 0.001
1 *22 0.1337333
2 *22:2 0.131361
3 *22:3 0.1012991
4 *22:4 0.1012991
5 *22:5 0.02698774
6 *22:6 0.02555506

*RES
0 *36:Q *22:6 1
1 *22:6 *22:5 1.0375
2 *22:5 *22:4 0.5
3 *22:4 *22:3 4.023214
4 *22:2 *22 3.900893
5 *22:3 *22:2 0.5

*END

*D_NET *23 0.3116741 //LENGTH 4.586 LUMPCC 0 DR

*CONN
*I *37:Q O *L 0 *C 5.800 18.112
*P *23 O *L 0 *C 5.648 22.134
*N *23:2 *C 5.800 17.930
*N *23:3 *C 5.648 18.126
*N *23:4 *C 5.648 18.112
*N *23:5 *C 5.788 18.112
*N *23:6 *C 5.800 18.100

*CAP
0 *37:Q 0.001
1 *23 0.137851
2 *23:2 0.01266508
3 *23:3 0.1354793
4 *23:4 0.009095682
5 *23:5 0.009095136
6 *23:6 0.00648797

*RES
0 *37:Q *23:6 1
1 *23:6 *23:5 0.5
2 *23:6 *23:2 0.2825
3 *23:5 *23:4 0.2325
4 *23:4 *23:3 0.5
5 *23:3 *23 7.158036

*END

*D_NET *24 1.449042 //LENGTH 15.867 LUMPCC 0 DR

*CONN
*I *38:Q O *L 0 *C 21.608 9.296
*P *24 O *L 0 *C 19.784 22.120
*N *24:2 *C 19.784 22.064
*N *24:3 *C 19.632 22.064
*N *24:4 *C 19.632 20.240
*N *24:5 *C 19.784 20.240
*N *24:6 *C 19.784 17.200
*N *24:7 *C 19.632 17.200
*N *24:8 *C 19.632 9.614
*N *24:9 *C 19.646 9.600
*N *24:10 *C 21.595 9.600
*N *24:11 *C 21.608 9.587
*N *24:12 *C 21.608 9.309

*CAP
0 *38:Q 0.001
1 *24 0.007587965
2 *24:2 0.01480355
3 *24:3 0.1304896
4 *24:4 0.1342307
5 *24:5 0.1540819
6 *24:6 0.1538245
7 *24:7 0.3487201
8 *24:8 0.3356486
9 *24:9 0.06866609
10 *24:10 0.06866609
11 *24:11 0.01637792
12 *24:12 0.01494524

*RES
0 *38:Q *24:12 1
1 *24:12 *24:11 0.4946429
2 *24:11 *24:10 0.5
3 *24:10 *24:9 3.480358
4 *24:8 *24:7 13.54732
5 *24:9 *24:8 0.5
6 *24:7 *24:6 0.2714286
7 *24:6 *24:5 5.428572
8 *24:4 *24:3 3.257143
9 *24:5 *24:4 0.2714286
10 *24:3 *24:2 0.2714286
11 *24:2 *24 0.1

*END

*D_NET *25 0.7582839 //LENGTH 11.489 LUMPCC 0 DR

*CONN
*I *39:Q O *L 0 *C 21.456 12.640
*P *25 O *L 0 *C 20.088 22.134
*N *25:2 *C 21.456 12.458
*N *25:3 *C 20.088 21.166
*N *25:4 *C 20.102 21.152
*N *25:5 *C 20.835 21.152
*N *25:6 *C 20.848 21.139
*N *25:7 *C 20.848 12.654
*N *25:8 *C 20.861 12.640
*N *25:9 *C 21.443 12.640
*N *25:10 *C 21.456 12.628

*CAP
0 *39:Q 0.001
1 *25 0.05000798
2 *25:2 0.01870275
3 *25:3 0.04763576
4 *25:4 0.02855622
5 *25:5 0.02855677
6 *25:6 0.2632536
7 *25:7 0.2632536
8 *25:8 0.02239608
9 *25:9 0.02239554
10 *25:10 0.01252564

*RES
0 *39:Q *25:10 1
1 *25:10 *25:9 0.5
2 *25:10 *25:2 0.2825
3 *25:9 *25:8 1.0375
4 *25:8 *25:7 0.5
5 *25:7 *25:6 15.15179
6 *25:5 *25:4 1.308929
7 *25:6 *25:5 0.5
8 *25:3 *25 1.729464
9 *25:4 *25:3 0.5

*END

*D_NET *26 2.295605 //LENGTH 26.145 LUMPCC 0 DR

*CONN
*I *54:QN O *L 0 *C 21.456 7.472
*P *26 O *L 0 *C 10.360 22.134
*N *26:2 *C 10.360 16.910
*N *26:3 *C 10.373 16.896
*N *26:4 *C 21.291 16.896
*N *26:5 *C 21.304 16.883
*N *26:6 *C 21.304 8.080
*N *26:7 *C 21.456 8.080
*N *26:8 *C 21.456 7.486

*CAP
0 *54:QN 0.001
1 *26 0.2809609
2 *26:2 0.2785887
3 *26:3 0.4296787
4 *26:4 0.4296787
5 *26:5 0.4017723
6 *26:6 0.4120185
7 *26:7 0.03679308
8 *26:8 0.0251142

*RES
0 *54:QN *26:8 1
1 *26:8 *26:7 1.061607
2 *26:5 *26:4 0.5
3 *26:4 *26:3 19.49464
4 *26:2 *26 9.329464
5 *26:3 *26:2 0.5
6 *26:6 *26:5 15.71875
7 *26:7 *26:6 0.2714286

*END

*D_NET *27 0.4144365 //LENGTH 5.361 LUMPCC 0 DR

*CONN
*I *40:Q O *L 0 *C 21.456 18.112
*P *27 O *L 0 *C 20.392 22.134
*N *27:2 *C 20.392 18.733
*N *27:3 *C 20.405 18.720
*N *27:4 *C 21.443 18.720
*N *27:5 *C 21.456 18.707
*N *27:6 *C 21.456 18.126

*CAP
0 *40:Q 0.001
1 *27 0.1467064
2 *27:2 0.1443342
3 *27:3 0.0367997
4 *27:4 0.0367997
5 *27:5 0.02511456
6 *27:6 0.02368188

*RES
0 *40:Q *27:6 1
1 *27:6 *27:5 1.0375
2 *27:5 *27:4 0.5
3 *27:4 *27:3 1.851786
4 *27:2 *27 6.072322
5 *27:3 *27:2 0.5

*END

*D_NET *137 1.134705 //LENGTH 12.077 LUMPCC 0 DR

*CONN
*I *41:QN O *L 0 *C 15.376 6.560
*I *62:A1 I *L 0.564384 *C 17.656 2.608
*I *58:A2 I *L 0.483357 *C 19.176 2.912
*I *93:A1 I *L 0.564384 *C 21.426 2.633
*N *137:4 *C 20.863 2.608
*N *137:5 *C 20.848 2.622
*N *137:6 *C 20.848 3.506
*N *137:7 *C 20.835 3.520
*N *137:8 *C 19.176 2.913
*N *137:9 *C 19.176 3.506
*N *137:10 *C 19.176 3.520
*N *137:11 *C 17.656 2.609
*N *137:12 *C 17.656 3.506
*N *137:13 *C 17.656 3.520
*N *137:14 *C 15.389 3.520
*N *137:15 *C 15.376 3.534
*N *137:16 *C 15.376 6.546

*CAP
0 *41:QN 0.001
1 *62:A1 0.001
2 *58:A2 0.001
3 *93:A1 0.03671795
4 *137:4 0.03464255
5 *137:5 0.0394434
6 *137:6 0.03914658
7 *137:7 0.08294733
8 *137:8 0.03347568
9 *137:9 0.03473541
10 *137:10 0.1477396
11 *137:11 0.05470977
12 *137:12 0.05614245
13 *137:13 0.172285
14 *137:14 0.1074927
15 *137:15 0.1468298
16 *137:16 0.1453972

*RES
0 *41:QN *137:16 1
1 *137:6 *137:5 1.580357
2 *137:7 *137:6 0.5
3 *137:4 *93:A1 1.126
4 *137:5 *137:4 1
5 *137:9 *137:8 1.059821
6 *137:10 *137:9 0.5
7 *137:10 *137:7 2.961607
8 *137:8 *58:A2 1
9 *137:12 *137:11 1.602679
10 *137:13 *137:12 0.5
11 *137:13 *137:10 2.714286
12 *137:11 *62:A1 1
13 *137:15 *137:14 0.5
14 *137:14 *137:13 4.047322
15 *137:16 *137:15 5.380357

*END

*D_NET *138 0.2941346 //LENGTH 2.886 LUMPCC 0 DR

*CONN
*I *98:Y O *L 0 *C 16.936 16.136
*I *40:D I *L 0.558146 *C 18.082 17.656
*N *138:2 *C 17.823 17.656
*N *138:3 *C 17.808 17.643
*N *138:4 *C 17.808 16.149
*N *138:5 *C 17.793 16.136

*CAP
0 *98:Y 0.05423565
1 *40:D 0.0223882
2 *138:2 0.0203128
3 *138:3 0.07251886
4 *138:4 0.07251886
5 *138:5 0.05216026

*RES
0 *98:Y *138:5 1.714
1 *138:2 *40:D 0.5180001
2 *138:3 *138:2 1
3 *138:5 *138:4 1
4 *138:4 *138:3 2.666071

*END

*D_NET *139 0.3362595 //LENGTH 3.537 LUMPCC 0 DR

*CONN
*I *59:Y O *L 0 *C 20.048 2.760
*I *60:A3 I *L 0.535888 *C 18.720 4.584
*N *139:2 *C 18.720 4.571
*N *139:3 *C 18.720 4.142
*N *139:4 *C 18.733 4.128
*N *139:5 *C 19.466 4.128
*N *139:6 *C 19.480 4.115
*N *139:7 *C 19.480 2.774
*N *139:8 *C 19.495 2.760

*CAP
0 *59:Y 0.04362883
1 *60:A3 0.001
2 *139:2 0.02125401
3 *139:3 0.02268669
4 *139:4 0.03512075
5 *139:5 0.03512075
6 *139:6 0.06779914
7 *139:7 0.06809595
8 *139:8 0.04155343

*RES
0 *59:Y *139:8 1.106
1 *139:2 *60:A3 1
2 *139:3 *139:2 0.7660714
3 *139:4 *139:3 0.5
4 *139:6 *139:5 0.5
5 *139:5 *139:4 1.308929
6 *139:8 *139:7 1
7 *139:7 *139:6 2.394643

*END

*D_NET *140 0.1378165 //LENGTH 1.683 LUMPCC 0 DR

*CONN